Version 4
SHEET 1 880 680
SYMBOL res 112 96 R0
SYMATTR InstName R1
