Version 4
SHEET 1 1484 932
WIRE 400 -192 400 -208
WIRE -368 -64 -448 -64
WIRE -240 -64 -288 -64
WIRE -144 -64 -240 -64
WIRE 0 -64 -144 -64
WIRE 64 -64 0 -64
WIRE 80 -64 64 -64
WIRE 400 -64 400 -128
WIRE 400 -64 368 -64
WIRE 448 -64 400 -64
WIRE 576 -64 528 -64
WIRE 624 -64 576 -64
WIRE 736 -64 704 -64
WIRE 832 -64 736 -64
WIRE 880 -64 832 -64
WIRE 928 -64 880 -64
WIRE 992 -64 928 -64
WIRE 1056 -64 992 -64
WIRE 1152 -64 1056 -64
WIRE 1248 -64 1152 -64
WIRE -144 -48 -144 -64
WIRE 400 -48 400 -64
WIRE 928 -48 928 -64
WIRE 992 -48 992 -64
WIRE 1056 -48 1056 -64
WIRE 1248 -48 1248 -64
WIRE -448 -32 -448 -64
WIRE -240 -32 -240 -64
WIRE 0 32 -144 32
WIRE 80 32 0 32
WIRE 400 32 400 16
WIRE 400 32 368 32
WIRE 464 32 400 32
WIRE 624 32 528 32
WIRE 736 32 736 -64
WIRE 736 32 688 32
WIRE 928 32 928 16
WIRE 992 32 992 16
WIRE 1056 32 1056 16
WIRE -448 48 -448 32
WIRE -144 48 -144 32
WIRE -448 64 -448 48
WIRE -240 64 -240 32
WIRE 880 96 880 -64
WIRE 64 128 64 -64
WIRE 80 128 64 128
WIRE 432 128 368 128
WIRE 576 128 576 -64
WIRE 576 128 432 128
WIRE 0 224 -144 224
WIRE 80 224 0 224
WIRE 496 224 368 224
WIRE 736 224 736 32
WIRE 736 224 496 224
WIRE 832 240 832 -64
WIRE 0 320 -80 320
WIRE 80 320 0 320
WIRE 384 320 368 320
WIRE 496 320 464 320
WIRE 592 320 576 320
WIRE 736 320 736 224
WIRE -16 416 -32 416
WIRE 80 416 48 416
WIRE 400 416 368 416
WIRE 448 416 400 416
WIRE 736 416 736 400
WIRE 736 416 528 416
WIRE 736 464 736 416
WIRE 224 480 224 464
WIRE -80 608 -80 320
WIRE 832 608 832 320
WIRE 832 608 -80 608
WIRE -144 640 -144 224
WIRE 880 640 880 176
WIRE 880 640 -144 640
FLAG 224 480 0
FLAG 400 -208 0
FLAG -240 64 0
FLAG -32 416 0
FLAG 592 320 0
FLAG 928 32 0
FLAG -448 -64 IN
FLAG -448 64 0
FLAG 1248 -64 OUT
FLAG -144 128 0
FLAG 992 32 0
FLAG 736 544 0
FLAG 1056 32 0
FLAG 0 32 Vin_reg
FLAG 0 -64 Vin
FLAG 496 224 V_bat
FLAG 400 416 Vfb
FLAG 1248 32 0
FLAG 1152 16 0
FLAG 0 224 chrg
FLAG 0 320 fault
FLAG 432 128 sense
SYMBOL PowerProducts\\LT3652 224 176 R0
SYMATTR InstName U1
SYMBOL res 608 -48 R270
WINDOW 0 32 56 VTop 2
WINDOW 3 0 56 VBottom 2
SYMATTR InstName R1
SYMATTR Value 0.22
SYMBOL cap 384 -48 R0
SYMATTR InstName C1
SYMATTR Value 1µ
SYMBOL diode 528 16 R90
WINDOW 0 0 32 VBottom 2
WINDOW 3 32 32 VTop 2
SYMATTR InstName D1
SYMATTR Value 1N914
SYMBOL schottky 384 -192 R0
SYMATTR Value MBRS340
SYMATTR InstName D2
SYMATTR Description Diode
SYMATTR Type diode
SYMBOL res -160 -64 R0
SYMATTR InstName R2
SYMATTR Value 12.222Meg
SYMBOL res -160 32 R0
SYMATTR InstName R3
SYMATTR Value 10Meg
SYMBOL res 720 304 R0
SYMATTR InstName R_fb1
SYMATTR Value 47k
SYMBOL res 480 304 R90
WINDOW 0 0 56 VBottom 2
WINDOW 3 32 56 VTop 2
SYMATTR InstName R6
SYMATTR Value 910
SYMBOL res 544 400 R90
WINDOW 0 0 56 VBottom 2
WINDOW 3 32 56 VTop 2
SYMATTR InstName R_fb3
SYMATTR Value 220k
SYMBOL res 480 336 R270
WINDOW 0 32 56 VTop 2
WINDOW 3 0 56 VBottom 2
SYMATTR InstName NTC
SYMATTR Value 10K
SYMBOL cap 912 -48 R0
SYMATTR InstName C2
SYMATTR Value 10µ
SYMATTR SpiceLine Rser=0.003
SYMBOL zener 624 48 R270
WINDOW 0 32 32 VTop 2
WINDOW 3 0 32 VBottom 2
SYMATTR InstName D5
SYMATTR Value BZX84C6V2L
SYMATTR Description Diode
SYMATTR Type diode
SYMBOL cap -256 -32 R0
SYMATTR InstName C4
SYMATTR Value 10µ
SYMBOL cap 48 400 R90
WINDOW 0 0 32 VBottom 2
WINDOW 3 32 32 VTop 2
SYMATTR InstName C5
SYMATTR Value 4.7µ
SYMBOL ind 432 -48 R270
WINDOW 0 32 56 VTop 2
WINDOW 3 5 56 VBottom 2
SYMATTR InstName L1
SYMATTR Value 68µ
SYMATTR SpiceLine Ipk=1.7 Rser=0.11 Rpar=21068 Cpar=5.6p mfg="Wurth Elektronik" pn="7447779122 WE-PD M"
SYMBOL res 720 448 R0
SYMATTR InstName R_fb2
SYMATTR Value 220k
SYMBOL res 864 80 R0
SYMATTR InstName R4
SYMATTR Value 10k
SYMBOL polcap 976 -48 R0
SYMATTR InstName C6
SYMATTR Value 47µ
SYMBOL polcap 1040 -48 R0
SYMATTR InstName C7
SYMATTR Value 47µ
SYMBOL voltage -448 -48 R0
WINDOW 123 0 0 Left 0
WINDOW 39 0 0 Left 0
SYMATTR InstName V1
SYMATTR Value 6.6
SYMBOL res -272 -80 R90
WINDOW 0 0 56 VBottom 2
WINDOW 3 32 56 VTop 2
SYMATTR InstName R5
SYMATTR Value 1
SYMBOL res 1232 -64 R0
SYMATTR InstName R_load
SYMATTR Value 2
SYMBOL res 1136 -80 R0
SYMATTR InstName R8
SYMATTR Value 80k
SYMBOL res 816 224 R0
SYMATTR InstName R7
SYMATTR Value 10k
TEXT 936 608 Left 2 !.tran 10m
TEXT -672 176 Left 2 !.subckt PhotoCell B A\nC1 A B 1n\nV1 N001 B  PWL(0 0 3u 17.7)\nD1 N001 A S2\nR1 A N001 75\n.model S2 D(Ron=.1 Ilimit=1.2 epsilon=.5)\n.ends
TEXT 328 -232 Bottom 2 ;LT3652 - Power Tracking 2A Battery Charger for Solar Power\n1A Solar Panel Powered 3-Stage 12V Lead-Acid Fast/Float Charger\nInput: Up to 16V     Output: Up to 14.4V @ 1A
TEXT -296 648 Left 2 ;Note:\n  If the simulation model is not found please update with the "Sync Release" command from the "Tools" menu.\n  It remains the customer's responsibility to verify proper and reliable operation in the actual application.\n  Component substitution and printed circuit board layout may significantly affect circuit performance or reliability\n  Contact your local sales representative for assistance. This circuit is distributed to customers only for use with LTC parts\n  Copyright © 2011 Linear Technology Inc. All rights reserved.
TEXT 1216 88 Left 2 !.ic V(OUT)=3.3
