Version 4
SHEET 1 1468 680
WIRE -768 -192 -800 -192
WIRE -640 -192 -688 -192
WIRE -800 -160 -800 -192
WIRE -640 -128 -640 -192
WIRE -336 -128 -640 -128
WIRE 64 -128 -336 -128
WIRE -640 -96 -640 -128
WIRE 1408 -48 1184 -48
WIRE -336 -32 -336 -48
WIRE 64 -32 -336 -32
WIRE -336 -16 -336 -32
WIRE -640 64 -640 -32
WIRE -336 64 -640 64
WIRE 1248 96 1248 16
WIRE 1408 96 1408 16
WIRE -640 112 -640 64
WIRE 64 352 16 352
WIRE 16 464 16 352
WIRE 16 560 16 528
WIRE 208 560 208 400
WIRE 208 560 16 560
WIRE 208 576 208 560
FLAG -640 112 0
FLAG -800 -160 0
FLAG 208 576 0
FLAG 1248 96 0
FLAG 1408 96 0
SYMBOL PowerProducts\\LT3652 208 112 R0
SYMATTR InstName U1
SYMBOL cap -624 -32 R180
WINDOW 0 24 56 Left 2
WINDOW 3 24 8 Left 2
SYMATTR InstName C1
SYMATTR Value 10µ
SYMBOL res -352 -144 R0
SYMATTR InstName R1
SYMBOL res -352 -32 R0
SYMATTR InstName R2
SYMBOL voltage -672 -192 R90
WINDOW 0 -32 56 VBottom 2
WINDOW 3 32 56 VTop 2
SYMATTR InstName V_in
SYMBOL cap 0 464 R0
SYMATTR InstName C2
