Version 4
SHEET 1 1468 804
WIRE 512 -336 464 -336
WIRE 624 -336 576 -336
WIRE 624 -288 624 -336
WIRE -832 -240 -880 -240
WIRE -720 -240 -768 -240
WIRE -512 -240 -720 -240
WIRE -288 -240 -512 -240
WIRE -160 -240 -288 -240
WIRE -288 -208 -288 -240
WIRE -880 -192 -880 -240
WIRE -720 -176 -720 -240
WIRE -160 -128 -160 -240
WIRE 64 -128 -160 -128
WIRE 464 -128 464 -336
WIRE 464 -128 352 -128
WIRE 768 -128 464 -128
WIRE -512 -112 -512 -240
WIRE 464 -112 464 -128
WIRE 768 -80 768 -128
WIRE -880 -32 -880 -112
WIRE -720 -32 -720 -112
WIRE -288 -32 -288 -128
WIRE 64 -32 -288 -32
WIRE 464 -32 464 -48
WIRE 464 -32 352 -32
WIRE 592 -32 464 -32
WIRE 704 -32 656 -32
WIRE -512 64 -512 -32
WIRE 64 64 -512 64
WIRE 768 64 768 0
WIRE 768 64 352 64
WIRE 848 64 768 64
WIRE 976 64 928 64
WIRE 64 160 -80 160
WIRE 608 160 352 160
WIRE 704 160 704 -32
WIRE 704 160 608 160
WIRE 784 160 704 160
WIRE 880 160 784 160
WIRE 976 160 976 64
WIRE 976 160 880 160
WIRE 1008 160 976 160
WIRE 1152 160 1008 160
WIRE -288 176 -288 -32
WIRE 608 208 608 160
WIRE 1152 208 1152 160
WIRE 784 224 784 160
WIRE 880 224 880 160
WIRE 1008 224 1008 160
WIRE 64 256 -32 256
WIRE 400 256 352 256
WIRE 544 256 480 256
WIRE 544 272 544 256
WIRE -512 336 -512 64
WIRE 64 352 16 352
WIRE 448 352 352 352
WIRE 608 352 608 288
WIRE 608 352 528 352
WIRE 784 352 784 288
WIRE 1152 352 1152 272
WIRE 608 432 608 352
WIRE 16 464 16 352
WIRE -512 496 -512 416
WIRE -288 496 -288 256
WIRE 16 560 16 528
WIRE 208 560 208 400
WIRE 208 560 16 560
WIRE 608 560 608 512
WIRE 608 560 208 560
WIRE -32 608 -32 256
WIRE 880 608 880 304
WIRE 880 608 -32 608
WIRE -80 656 -80 160
WIRE 1008 656 1008 304
WIRE 1008 656 -80 656
WIRE 208 736 208 560
FLAG 208 736 0
FLAG -288 496 0
FLAG -720 -32 0
FLAG -512 496 0
FLAG 784 352 0
FLAG 624 -288 0
FLAG 1152 352 0
FLAG 544 272 0
FLAG -880 -32 0
FLAG 1152 160 OUT
FLAG -880 -240 IN
SYMBOL PowerProducts\\LT3652 208 112 R0
SYMATTR InstName U1
SYMBOL res -304 -224 R0
SYMATTR InstName R_reg1
SYMATTR Value 0
SYMBOL res -304 160 R0
SYMATTR InstName R_reg2
SYMATTR Value 0
SYMBOL cap 0 464 R0
SYMATTR InstName C_timer
SYMATTR Value 1.0µ
SYMBOL cap -736 -176 R0
SYMATTR InstName C1
SYMATTR Value 10µ
SYMBOL res -528 -128 R0
SYMATTR InstName R_shdn1
SYMATTR Value 0
SYMBOL res -528 320 R0
SYMATTR InstName R_shdn2
SYMATTR Value 0
SYMBOL res 544 336 R90
WINDOW 0 0 56 VBottom 2
WINDOW 3 32 56 VTop 2
SYMATTR InstName R_fb
SYMATTR Value 0
SYMBOL res 592 192 R0
SYMATTR InstName R2
SYMATTR Value 100k
SYMBOL res 592 416 R0
SYMATTR InstName R3
SYMATTR Value 300k
SYMBOL cap 768 224 R0
SYMATTR InstName C2
SYMATTR Value 10µ
SYMBOL res 944 48 R90
WINDOW 0 0 56 VBottom 2
WINDOW 3 32 56 VTop 2
SYMATTR InstName R_sense
SYMATTR Value 0.22
SYMBOL cap 448 -112 R0
SYMATTR InstName C_strap
SYMATTR Value 1.0µ
SYMBOL schottky 576 -352 R90
WINDOW 0 -4 32 VBottom 2
WINDOW 3 36 32 VTop 2
SYMATTR InstName D1
SYMATTR Value ZLLS1000
SYMATTR Description Zener Diode
SYMATTR Type zener
SYMBOL schottky 656 -48 R90
WINDOW 0 -4 32 VBottom 2
WINDOW 3 36 32 VTop 2
SYMATTR InstName D2
SYMATTR Value ZLLS1000
SYMATTR Description Zener Diode
SYMATTR Type zener
SYMBOL ind 752 -96 R0
SYMATTR InstName L1
SYMATTR Value 68µ
SYMBOL res 992 208 R0
SYMATTR InstName R_chrg
SYMATTR Value 10k
SYMBOL res 864 208 R0
SYMATTR InstName R_fault
SYMATTR Value 10k
SYMBOL res 496 240 R90
WINDOW 0 0 56 VBottom 2
WINDOW 3 32 56 VTop 2
SYMATTR InstName Thermistor
SYMATTR Value 0
SYMBOL voltage -880 -208 R0
WINDOW 123 0 0 Left 0
WINDOW 39 0 0 Left 0
SYMATTR InstName V1
SYMATTR Value 5
SYMBOL cap 1136 208 R0
SYMATTR InstName C3
SYMATTR Value 23850000
SYMATTR SpiceLine Rser=15.5m
SYMBOL diode -832 -224 R270
WINDOW 0 32 32 VTop 2
WINDOW 3 0 32 VBottom 2
SYMATTR InstName D3
TEXT 1088 768 Left 2 !;op 10 startup
TEXT 1168 408 Left 2 !.ic V(OUT)=3.3 V(IN)=5
TEXT -1014 788 Left 2 !.tran 10
